version 2
1
9
.tran 500u 200m{return}.kicad adjustpaths{return}.save all{return}.probe alli
1
1
V(Net-_D1-A_)
 
